[TITLE]
;;Project Title/Notes
;;-------------------

[OPTIONS]
;;Option                  Value
;;----------------------- ----------
FLOW_UNITS                CMS
START_DATE                09/12/2009
START_TIME                00:00:00
END_DATE                  09/13/2009
END_TIME                  16:26:00
REPORT_START_DATE         09/12/2009
REPORT_START_TIME         00:00:00
MAX_NUM_CELLS             360
MAX_NUM_PLOT_CELLS        100
REF_DEPTH_FRACTION        0.95
REPORT_STEP               30
MAX_TIME_STEP             60
PRESSURIZED_WAVE_CELERITY 100
USE_HOTSTART_FILE         *
SAVE_HOTSTART_FILE        *


[JUNCTIONS]
;;               Invert     Max.       Init.                Dropshaft
;;Name           Elev.      Depth      Depth     Area       (Ventilated)
;;-------------- ---------- ---------- -------------------- ----------
;DS3
DS3              -80.439    400        0          50         JUNCTION
;DS2
2                -80.178    400        0          50         JUNCTION
;DS6
DS6              -77.477    400        0          10         JUNCTION
; DS7
7                -76.943    400        0          50         JUNCTION
; DS8
DS8              -76.198    400        0          50         JUNCTION
; DS9
DS9              -74.18     400        0          50         JUNCTION
;DS10
DS10             -71.987    400        0          50         JUNCTION
;DS11
DS11             -65.764    400        0          50         JUNCTION
;DS12
DS12             -61.554    400        0          8          JUNCTION
;DS13
DS13             -47.765    400        0          50         JUNCTION
;DS14
DS14             -34.138    400        0          5          JUNCTION
;DS15
DS15             -58.267    300        0          10         JUNCTION
; DS5
junction         -78.776    10         0          100        JUNCTION

[STORAGE]
;;               Invert     Max.       Init.      Shape                    Constant  
;;Name           Elev.      Depth      Depth      Curve                    Outflow   
;;-------------- ---------- ---------- ---------- ------------------------ ----------
StorageUnit      -78.441    80         0          TABULAR Reservoir_A      0         

[CONDUITS]
;;               Inlet            Outlet                      Manning    Inlet      Outlet     Init.      --Initial Depth--
;;Name           Node             Node             Length     N          Offset     Offset     Flow       Type     Value   
;;-------------- ---------------- ---------------- ---------- ---------- ---------- ---------- ---------- -------- --------
2024             StorageUnit      DS3              1400       0.015      10         0          0          CONSTANT   0         
2026             2                DS3              1346.712   0.015      0          0          0          CONSTANT   0         
2014             junction         2                6808.313   0.015      0          0          0          CONSTANT   0         
8354             DS6              junction         6472.231   0.015      0          0          0          CONSTANT   0         
1999             7                DS6              2556.965   0.015      0          0          0          CONSTANT   0         
2113             DS8              DS6              6369.913   0.015      0          0          0          CONSTANT   0         
2111             DS9              DS8              6813.215   0.015      0          0          0          CONSTANT   0         
1962             DS10             DS9              5195.585   0.015      0          0          0          CONSTANT   0         
1960             DS11             DS10             5177.693   0.015      0          0          0          CONSTANT   0         
1926             DS15             DS11             7353.037   0.015      0.0        0          0          CONSTANT   0         
1961             DS12             DS10             6923.209   0.015      0          0.005      0          CONSTANT   0         
1946             DS13             DS12             6995.064   0.015      0          0          0          CONSTANT   0         
1947             DS14             DS13             945.673    0.015      0          11.034     0          CONSTANT   0         

[XSECTIONS]
;;Link           Shape        Height   Width    Slope   
;;-------------- ------------ -------- -------- --------
2024             CIRCULAR     10.058          
2026             CIRCULAR     10.058          
2014             CIRCULAR     10.058          
8354             CIRCULAR     10.058          
1999             CIRCULAR     9.144           
2113             CIRCULAR     9.144           
2111             CIRCULAR     9.144           
1962             CIRCULAR     9.144           
1960             CIRCULAR     9.144           
1926             CIRCULAR     6.706           
1961             CIRCULAR     9.144           
1946             CIRCULAR     9.144           
1947             CIRCULAR     2.515           

[LOSSES]
;;Link           Inlet      Outlet    
;;-------------- ---------- ----------
2024             0.5        0.5       
2026             0.5        0.5       
2014             0.5        0.5       
8354             0.5        0.5       
1999             0.5        0.5       
2113             0.5        0.5       
2111             0.5        0.5       
1962             0.5        0.5       
1960             0.5        0.5       
1926             0.5        0.5       
1961             0.5        0.5       
1946             0.5        0.5       
1947             0.5        0.5       

[INFLOWS]
;;                                           Param    Units    Scale    Baseline
;;Node           Parameter  Time Series      Type     Factor   Factor   Value   
;;--------------  --------- ---------------- -------- -------- -------- --------
DS3              FLOW       Hyd2             FLOW     1.0      0.8      0       
2                FLOW       Hyd3             FLOW     1.0      0.8      0       
7                FLOW       Hyd5             FLOW     1.0      0.8      0       
DS8              FLOW       Hyd6             FLOW     1.0      0.8      0       
DS9              FLOW       Hyd7             FLOW     1.0      0.8      0       
DS12             FLOW       Hyd8             FLOW     1.0      0.8      0       
DS13             FLOW       Hyd11            FLOW     1.0      0.8      0       

[CURVES]
;;Name           Type       X-Value    Y-Value   
;;-------------- ---------- ---------- ----------
Reservoir_A      Storage    0          0         
Reservoir_A                 3.048      42388     
Reservoir_A                 6.096      84776     
Reservoir_A                 9.144      127164    
Reservoir_A                 12.192     169552    
Reservoir_A                 15.240     211940    
Reservoir_A                 18.288     254328    
Reservoir_A                 21.336     296716    
Reservoir_A                 21.397     2231105   
Reservoir_A                 21.946     2290185   
Reservoir_A                 22.555     2355829   
Reservoir_A                 23.165     2421473   
Reservoir_A                 23.774     2487116   
Reservoir_A                 24.323     2546196   
Reservoir_A                 24.445     6514906   
Reservoir_A                 27.188     7317393   
Reservoir_A                 29.931     8129127   
Reservoir_A                 32.675     8950109   
Reservoir_A                 35.418     9780338   
Reservoir_A                 38.161     10619814  
Reservoir_A                 40.843     11449678  
Reservoir_A                 46.068     13252230  
Reservoir_A                 51.293     15089997  
Reservoir_A                 56.519     16969606  
Reservoir_A                 61.744     18891303  
Reservoir_A                 66.969     20855543  
Reservoir_A                 72.194     22862771  
Reservoir_A                 77.419     24913787  
Reservoir_A                 100        33985588  

a1               Rating     2          0.0       
a1                          3          50        
a1                          5          100       
a1                          10         200       
a1                          20         400       

rat1             Rating     2.0        0.0       
rat1                        2.1        0.23      
rat1                        2.2        0.66      
rat1                        2.5        2.6       
rat1                        3          7.36      
rat1                        4          20.81     
rat1                        6          58.88     
rat1                        8          108.17    
rat1                        10         166.53    
rat1                        15         344.98    

controlcuve1     Control    0          0         
controlcuve1                1.9        0         
controlcuve1                4          0         
controlcuve1                4.1        100       
controlcuve1                10         100       

[TIMESERIES]
;;Name           Date       Time       Value     
;;-------------- ---------- ---------- ----------
Hyd1                        0          0         
Hyd1                        0.0833333333333333 0.00048138639
Hyd1                        0.166666666666667 0.0020954466
Hyd1                        0.25       0.0034263384
Hyd1                        0.316666666666667 0.004983765
Hyd1                        0.416666666666667 0.0067677263
Hyd1                        0.483333333333333 0.0090613909
Hyd1                        0.583333333333333 0.011808125
Hyd1                        0.666666666666667 0.014413275
Hyd1                        0.733333333333333 0.017018425
Hyd1                        0.833333333333333 0.019736842
Hyd1                        0.916666666666667 0.02254021
Hyd1                        1          0.022228725
Hyd1                        1.06666666666667 0.021747338
Hyd1                        1.16666666666667 0.021294269
Hyd1                        1.25       0.020812882
Hyd1                        1.31666666666667 0.02038813
Hyd1                        1.41666666666667 0.019963377
Hyd1                        1.5        0.019538624
Hyd1                        1.56666666666667 0.019142188
Hyd1                        1.66666666666667 0.018745752
Hyd1                        1.75       0.018377633
Hyd1                        1.81666666666667 0.018037831
Hyd1                        1.91666666666667 0.017669712
Hyd1                        1.98333333333333 0.020246545
Hyd1                        2.08333333333333 0.02307823
Hyd1                        2.16666666666667 0.025994865
Hyd1                        2.23333333333333 0.028939817
Hyd1                        2.33333333333333 0.03196972
Hyd1                        2.41666666666667 0.034999622
Hyd1                        2.48333333333333 0.038086159
Hyd1                        2.58333333333333 0.041172695
Hyd1                        2.66666666666667 0.044287548
Hyd1                        2.73333333333333 0.047374084
Hyd1                        2.83333333333333 0.050460621
Hyd1                        2.91666666666667 0.053547157
Hyd1                        2.98333333333333 0.078296081
Hyd1                        3.08333333333333 0.10746243
Hyd1                        3.16666666666667 0.13974364
Hyd1                        3.23333333333333 0.17409197
Hyd1                        3.33333333333333 0.20988447
Hyd1                        3.41666666666667 0.24652647
Hyd1                        3.48333333333333 0.28393302
Hyd1                        3.58333333333333 0.32029185
Hyd1                        3.66666666666667 0.35670732
Hyd1                        3.73333333333333 0.39235823
Hyd1                        3.83333333333333 0.42696141
Hyd1                        3.91666666666667 0.46037529
Hyd1                        4          0.69781205
Hyd1                        4.06666666666667 0.95515555
Hyd1                        4.16666666666667 1.2168598 
Hyd1                        4.25       1.4726176 
Hyd1                        4.31666666666667 1.7170203 
Hyd1                        4.41666666666667 1.9446028 
Hyd1                        4.5        2.1535528 
Hyd1                        4.56666666666667 2.3426244 
Hyd1                        4.66666666666667 2.5120441 
Hyd1                        4.75       2.6627747 
Hyd1                        4.81666666666667 2.7958072 
Hyd1                        4.91666666666667 2.9126142 
Hyd1                        5          3.2156045 
Hyd1                        5.06666666666667 3.6472665 
Hyd1                        5.16666666666667 4.1377992 
Hyd1                        5.25       4.6766405 
Hyd1                        5.31666666666667 5.2044382 
Hyd1                        5.41666666666667 5.7090727 
Hyd1                        5.5        6.1785094 
Hyd1                        5.56666666666667 6.6058106 
Hyd1                        5.66666666666667 6.9902967 
Hyd1                        5.75       7.3304953 
Hyd1                        5.81666666666667 7.6287567 
Hyd1                        5.91666666666667 7.8881107 
Hyd1                        6          7.2013988 
Hyd1                        6.06666666666667 6.6520237 
Hyd1                        6.16666666666667 6.2154346 
Hyd1                        6.25       5.8650136 
Hyd1                        6.31666666666667 5.5797214 
Hyd1                        6.41666666666667 5.3453145 
Hyd1                        6.5        5.1513724 
Hyd1                        6.56666666666667 4.9902779 
Hyd1                        6.66666666666667 4.8531394 
Hyd1                        6.75       4.7388526 
Hyd1                        6.81666666666667 4.6419807 
Hyd1                        6.91666666666667 4.5594937 
Hyd1                        7          4.2218719 
Hyd1                        7.06666666666667 3.932049  
Hyd1                        7.16666666666667 3.6820679 
Hyd1                        7.25       3.4665767 
Hyd1                        7.31666666666667 3.2790059 
Hyd1                        7.41666666666667 3.1161274 
Hyd1                        7.5        2.9736087 
Hyd1                        7.56666666666667 2.8480801 
Hyd1                        7.66666666666667 2.7375595 
Hyd1                        7.75       2.6397531 
Hyd1                        7.81666666666667 2.5530469 
Hyd1                        7.91666666666667 2.4759401 
Hyd1                        7.98333333333333 2.6118893 
Hyd1                        8.08333333333333 2.7383523 
Hyd1                        8.16666666666667 2.8529789 
Hyd1                        8.23333333333333 2.9573265 
Hyd1                        8.33333333333333 3.0513384 
Hyd1                        8.41666666666667 3.1358076 
Hyd1                        8.48333333333333 3.2116118 
Hyd1                        8.58333333333333 3.2793174 
Hyd1                        8.66666666666667 3.3398588 
Hyd1                        8.73333333333333 3.3934626 
Hyd1                        8.83333333333333 3.4414596 
Hyd1                        8.91666666666667 3.4843597 
Hyd1                        8.98333333333333 4.0286094 
Hyd1                        9.08333333333333 4.5464679 
Hyd1                        9.16666666666667 4.9988579 
Hyd1                        9.23333333333333 5.414889  
Hyd1                        9.33333333333333 5.7852167 
Hyd1                        9.41666666666667 6.111087  
Hyd1                        9.48333333333333 6.3964075 
Hyd1                        9.58333333333333 6.6443215 
Hyd1                        9.66666666666667 6.8600959 
Hyd1                        9.73333333333333 7.0457411 
Hyd1                        9.83333333333333 7.2058446 
Hyd1                        9.91666666666667 7.343606  
Hyd1                        9.98333333333333 8.1438684 
Hyd1                        10.0833333333333 8.848788  
Hyd1                        10.1666666666667 9.4520784 
Hyd1                        10.2333333333333 9.9632825 
Hyd1                        10.3333333333333 10.393047 
Hyd1                        10.4166666666667 10.751907 
Hyd1                        10.4833333333333 11.050196 
Hyd1                        10.5833333333333 11.297317 
Hyd1                        10.6666666666667 11.501652 
Hyd1                        10.7333333333333 11.67025  
Hyd1                        10.8333333333333 11.809399 
Hyd1                        10.9166666666667 11.924111 
Hyd1                        10.9833333333333 11.534584 
Hyd1                        11.0833333333333 11.239183 
Hyd1                        11.1666666666667 11.015536 
Hyd1                        11.2333333333333 10.846032 
Hyd1                        11.3333333333333 10.716256 
Hyd1                        11.4166666666667 10.614825 
Hyd1                        11.4833333333333 10.536812 
Hyd1                        11.5833333333333 10.475902 
Hyd1                        11.6666666666667 10.428245 
Hyd1                        11.7333333333333 10.39081  
Hyd1                        11.8333333333333 10.361417 
Hyd1                        11.9166666666667 10.339387 
Hyd1                        11.9833333333333 13.592285 
Hyd1                        12.0833333333333 16.652515 
Hyd1                        12.1666666666667 19.210545 
Hyd1                        12.2333333333333 21.324171 
Hyd1                        12.3333333333333 23.0291   
Hyd1                        12.4166666666667 24.382419 
Hyd1                        12.4833333333333 25.444046 
Hyd1                        12.5833333333333 26.270133 
Hyd1                        12.6666666666667 26.909471 
Hyd1                        12.7333333333333 27.40646  
Hyd1                        12.8333333333333 27.796723 
Hyd1                        12.9166666666667 28.106934 
Hyd1                        12.9833333333333 26.089443 
Hyd1                        13.0833333333333 24.618355 
Hyd1                        13.1666666666667 23.539568 
Hyd1                        13.2333333333333 22.742675 
Hyd1                        13.3333333333333 22.149211 
Hyd1                        13.4166666666667 21.70911  
Hyd1                        13.4833333333333 21.383325 
Hyd1                        13.5833333333333 21.145577 
Hyd1                        13.6666666666667 20.974515 
Hyd1                        13.7333333333333 20.855386 
Hyd1                        13.8333333333333 20.776976 
Hyd1                        13.9166666666667 20.729942 
Hyd1                        13.9833333333333 17.283669 
Hyd1                        14.0833333333333 14.673054 
Hyd1                        14.1666666666667 12.665389 
Hyd1                        14.2333333333333 11.086555 
Hyd1                        14.3333333333333 9.8349505 
Hyd1                        14.4166666666667 8.8173563 
Hyd1                        14.4833333333333 7.9826606 
Hyd1                        14.5833333333333 7.291503  
Hyd1                        14.6666666666667 6.7134996 
Hyd1                        14.7333333333333 6.2259118 
Hyd1                        14.8333333333333 5.8115797 
Hyd1                        14.9166666666667 5.4579589 
Hyd1                        14.9833333333333 5.3869686 
Hyd1                        15.0833333333333 5.3251246 
Hyd1                        15.1666666666667 5.2695952 
Hyd1                        15.2333333333333 5.219701  
Hyd1                        15.3333333333333 5.1751869 
Hyd1                        15.4166666666667 5.1350336 
Hyd1                        15.4833333333333 5.0983066 
Hyd1                        15.5833333333333 5.0654025 
Hyd1                        15.6666666666667 5.0352167 
Hyd1                        15.7333333333333 5.0077211 
Hyd1                        15.8333333333333 4.9827739 
Hyd1                        15.9166666666667 4.9603753 
Hyd1                        16         5.7882749 
Hyd1                        16.0666666666667 6.5744922 
Hyd1                        16.1666666666667 7.2926357 
Hyd1                        16.25      7.9383448 
Hyd1                        16.3166666666667 8.5149041 
Hyd1                        16.4166666666667 9.0203598 
Hyd1                        16.5       9.4598089 
Hyd1                        16.5666666666667 9.8399626 
Hyd1                        16.6666666666667 10.165493 
Hyd1                        16.75      10.443083 
Hyd1                        16.8166666666667 10.679189 
Hyd1                        16.9166666666667 10.877775 
Hyd1                        17         9.3720267 
Hyd1                        17.0666666666667 8.1639451 
Hyd1                        17.1666666666667 7.1953674 
Hyd1                        17.25      6.405837  
Hyd1                        17.3166666666667 5.7587688 
Hyd1                        17.4166666666667 5.2184833 
Hyd1                        17.5       4.7664615 
Hyd1                        17.5666666666667 4.388998  
Hyd1                        17.6666666666667 4.0610889 
Hyd1                        17.75      3.7834988 
Hyd1                        17.8166666666667 3.5437967 
Hyd1                        17.9166666666667 3.3358661 
Hyd1                        18         3.0370951 
Hyd1                        18.0666666666667 2.7771464 
Hyd1                        18.1666666666667 2.5521407 
Hyd1                        18.25      2.3554519 
Hyd1                        18.3166666666667 2.1833138 
Hyd1                        18.4166666666667 2.0317621 
Hyd1                        18.5       1.8974269 
Hyd1                        18.5666666666667 1.778298  
Hyd1                        18.6666666666667 1.6719965 
Hyd1                        18.75      1.5767953 
Hyd1                        18.8166666666667 1.49142   
Hyd1                        18.9166666666667 1.4145681 
Hyd1                        19         1.3220569 
Hyd1                        19.0666666666667 1.2386921 
Hyd1                        19.1666666666667 1.1631428 
Hyd1                        19.25      1.095239  
Hyd1                        19.3166666666667 1.0335083 
Hyd1                        19.4166666666667 0.97732764
Hyd1                        19.5       0.92618742
Hyd1                        19.5666666666667 0.87946462
Hyd1                        19.6666666666667 0.83664955
Hyd1                        19.75      0.79731745
Hyd1                        19.8166666666667 0.76135505
Hyd1                        19.9166666666667 0.72822434
Hyd1                        20         1.4320112 
Hyd1                        20.0666666666667 2.2480745 
Hyd1                        20.1666666666667 3.1049989 
Hyd1                        20.25      3.9553821 
Hyd1                        20.3166666666667 4.7649607 
Hyd1                        20.4166666666667 5.5272786 
Hyd1                        20.5       6.2214944 
Hyd1                        20.5666666666667 6.8428509 
Hyd1                        20.6666666666667 7.3909801 
Hyd1                        20.75      7.8716586 
Hyd1                        20.8166666666667 8.2880578 
Hyd1                        20.9166666666667 8.6472287 
Hyd1                        21         7.6992656 
Hyd1                        21.0666666666667 6.9127935 
Hyd1                        21.1666666666667 6.2696896 
Hyd1                        21.25      5.7390886 
Hyd1                        21.3166666666667 5.2949955 
Hyd1                        21.4166666666667 4.9224307 
Hyd1                        21.5       4.6100393 
Hyd1                        21.5666666666667 4.3348845 
Hyd1                        21.6666666666667 4.1038756 
Hyd1                        21.75      3.9043834 
Hyd1                        21.8166666666667 3.731056  
Hyd1                        21.9166666666667 3.581713  
Hyd1                        22         4.4195518 
Hyd1                        22.0666666666667 5.2670184 
Hyd1                        22.1666666666667 6.0244941 
Hyd1                        22.25      6.7001623 
Hyd1                        22.3166666666667 7.2965151 
Hyd1                        22.4166666666667 7.8151665 
Hyd1                        22.5       8.2618931 
Hyd1                        22.5666666666667 8.6441988 
Hyd1                        22.6666666666667 8.9696443 
Hyd1                        22.75      9.2455354 
Hyd1                        22.8166666666667 9.4782432 
Hyd1                        22.9166666666667 9.6750453 
Hyd1                        23         9.6975855 
Hyd1                        23.0666666666667 9.70996   
Hyd1                        23.1666666666667 9.7158782 
Hyd1                        23.25      9.7168976 
Hyd1                        23.3166666666667 9.7143491 
Hyd1                        23.4166666666667 9.709252  
Hyd1                        23.5       9.7024843 
Hyd1                        23.5666666666667 9.6946972 
Hyd1                        23.6666666666667 9.686372  
Hyd1                        23.75      9.6778203 
Hyd1                        23.8166666666667 9.6693819 
Hyd1                        23.9166666666667 9.6611417 
Hyd1                        24         9.4170505 
Hyd1                        24.0666666666667 9.2265914 
Hyd1                        24.1666666666667 9.0793721 
Hyd1                        24.25      8.9653118 
Hyd1                        24.3166666666667 8.8765669 
Hyd1                        24.4166666666667 8.8073322 
Hyd1                        24.5       8.7533036 
Hyd1                        24.5666666666667 8.7111398 
Hyd1                        24.6666666666667 8.6782073 
Hyd1                        24.75      8.652524  
Hyd1                        24.8166666666667 8.6325606 
Hyd1                        24.9166666666667 8.616958  
Hyd1                        25         8.4118874 
Hyd1                        25.0666666666667 8.2428358 
Hyd1                        25.1666666666667 8.1047346 
Hyd1                        25.25      7.9913822 
Hyd1                        25.3166666666667 7.8981065 
Hyd1                        25.4166666666667 7.8211413 
Hyd1                        25.5       7.7574851 
Hyd1                        25.5666666666667 7.7047025 
Hyd1                        25.6666666666667 7.6608397 
Hyd1                        25.75      7.6243393 
Hyd1                        25.8166666666667 7.593927  
Hyd1                        25.9166666666667 7.5682719 
Hyd1                        26         6.7256192 
Hyd1                        26.0666666666667 6.0316016 
Hyd1                        26.1666666666667 5.4594314 
Hyd1                        26.25      4.9884656 
Hyd1                        26.3166666666667 4.5860832 
Hyd1                        26.4166666666667 4.2493676 
Hyd1                        26.5       3.9654346 
Hyd1                        26.5666666666667 3.7187382 
Hyd1                        26.6666666666667 3.5078343 
Hyd1                        26.75      3.3251623 
Hyd1                        26.8166666666667 3.1688817 
Hyd1                        26.9166666666667 3.0257966 
Hyd1                        27         2.8578211 
Hyd1                        27.0666666666667 2.7109983 
Hyd1                        27.1666666666667 2.5824115 
Hyd1                        27.25      2.4695122 
Hyd1                        27.3166666666667 2.3698935 
Hyd1                        27.4166666666667 2.2815166 
Hyd1                        27.5       2.2031073 
Hyd1                        27.5666666666667 2.1330514 
Hyd1                        27.6666666666667 2.0704146 
Hyd1                        27.75      2.0143755 
Hyd1                        27.8166666666667 1.9640565 
Hyd1                        27.9166666666667 1.9188345 
Hyd1                        28         2.2452428 
Hyd1                        28.0666666666667 2.5696122 
Hyd1                        28.1666666666667 2.8796817 
Hyd1                        28.25      3.1702409 
Hyd1                        28.3166666666667 3.4386563 
Hyd1                        28.4166666666667 3.6827758 
Hyd1                        28.5       3.9038454 
Hyd1                        28.5666666666667 4.1016103 
Hyd1                        28.6666666666667 4.2762403 
Hyd1                        28.75      4.4311334 
Hyd1                        28.8166666666667 4.5614476 
Hyd1                        28.9166666666667 4.6854753 
Hyd1                        29         4.2270822 
Hyd1                        29.0666666666667 3.8288341 
Hyd1                        29.1666666666667 3.4982066 
Hyd1                        29.25      3.2170769 
Hyd1                        29.3166666666667 2.9765536 
Hyd1                        29.4166666666667 2.7695009 
Hyd1                        29.5       2.5891792 
Hyd1                        29.5666666666667 2.4322472 
Hyd1                        29.6666666666667 2.294684  
Hyd1                        29.75      2.1735445 
Hyd1                        29.8166666666667 2.0663369 
Hyd1                        29.9166666666667 1.9712773 
Hyd1                        30         1.8409915 
Hyd1                        30.0666666666667 1.7251756 
Hyd1                        30.1666666666667 1.6220173 
Hyd1                        30.25      1.5299592 
Hyd1                        30.3166666666667 1.4475572 
Hyd1                        30.4166666666667 1.3734803 
Hyd1                        30.5       1.3067658 
Hyd1                        30.5666666666667 1.2464226 
Hyd1                        30.6666666666667 1.1916862 
Hyd1                        30.75      1.1419052 
Hyd1                        30.8166666666667 1.0966548 