[TITLE]
;;Project Title/Notes
;;-------------------

[OPTIONS]
;;Option                  Value
;;----------------------- ----------
FLOW_UNITS                CMS
START_DATE                06/27/1993
START_TIME                15:00:00
END_DATE                  06/27/1993
END_TIME                  20:03:00
REPORT_START_DATE         06/27/1993
REPORT_START_TIME         15:00:00
MAX_NUM_CELLS             400
MAX_NUM_PLOT_CELLS        80
REF_DEPTH_FRACTION        0.95
REPORT_STEP               1
MAX_TIME_STEP             60
PRESSURIZED_WAVE_CELERITY 122
USE_HOTSTART_FILE         *
SAVE_HOTSTART_FILE        *


[JUNCTIONS]
;;               Invert     Max.       Init.                Dropshaft
;;Name           Elev.      Depth      Depth     Area       (Ventilated)
;;-------------- ---------- ---------- -------------------- ----------
1                182.04     13.93      0          2.34       JUNCTION
2                181.86     14.57      0          3.51       JUNCTION
3                181.59     12.42      0          3.51       JUNCTION
4                181.1      11.23      0          1.17       JUNCTION
5                180.64     11.97      0          3.51       JUNCTION
6                180.14     12.09      0          3.51       JUNCTION
7                179.90     4.98       0          7.02       JUNCTION
8                179.75     10.29      0          8.19       JUNCTION
9                179.15     10.58      0          3.51       JUNCTION
10               178.80     10.78      0          3.51       JUNCTION
11               178.55     10.72      0          2.34       JUNCTION
12               178.51     10.55      0          5.85       JUNCTION
13               178.37     11.93      0          3.51       JUNCTION
14               178.01     10.51      0          3.51       JUNCTION
15               177.65     4.58       0          2.34       JUNCTION
17               177.32     9.13       0          8.19       JUNCTION
18               176.89     10.47      0          3.51       JUNCTION
19               176.68     6.86       0          3.51       JUNCTION
20               176.55     8.49       0          5.85       JUNCTION
21               176.3      8.93       0          7.02       JUNCTION
22               176.06     7.35       0          4.68       JUNCTION
23               175.67     5.96       0          1.17       JUNCTION
24               175.66     6.02       0          5          JUNCTION
14_5             177.83     10.69      0          2          JUNCTION

[STORAGE]
;;               Invert     Max.       Init.      Shape                    Constant  
;;Name           Elev.      Depth      Depth      Curve                    Outflow   
;;-------------- ---------- ---------- ---------- ------------------------ ----------
25               175.2      10         0          TABULAR StorageCurve1    0         

[CONDUITS]
;;               Inlet            Outlet                      Manning    Inlet      Outlet     Init.      --Initial Depth--
;;Name           Node             Node             Length     N          Offset     Offset     Flow       Type     Value   
;;-------------- ---------------- ---------------- ---------- ---------- ---------- ---------- ---------- -------- --------
1.1              1                2                339.27     0.017      0          0          0          CONSTANT   0         
2.1              2                3                694.12     0.017      0          0          0          CONSTANT   0         
3.1              3                4                788.72     0.017      0          0          0          CONSTANT   0         
4.1              4                5                170.88     0.017      0          0          0          CONSTANT   0         
Pipe5.1          5                6                308.08     0.017      0          0.15       0          CONSTANT   0         
6.1              6                7                229.15     0.017      0          0          0          CONSTANT   0         
7.1              7                8                864.34     0.02       0          0          0          CONSTANT   0         
8.1              8                9                883.84     0.017      0          0          0          CONSTANT   0         
9.1              9                10               489.79     0.017      0          0          0          CONSTANT   0         
Pipe10.1         10               11               279.12     0.017      0          0          0          CONSTANT   0         
11.1             11               12               322.77     0.017      0          0          0          CONSTANT   0         
12.1             12               13               814.39     0.017      0          0          0          CONSTANT   0         
13.1             13               14               606.34     0.017      0          0          0          CONSTANT   0         
14.1             14               14_5             432.5      0.023      0          0.16       0          CONSTANT   0         
17.1             17               18               464.45     0.024      0          0          0          CONSTANT   0         
18.1             18               19               506.92     0.017      0          0          0          CONSTANT   0         
19.1             19               20               927.29     0.017      0          0          0          CONSTANT   0         
20.1             20               21               515.52     0.015      0          0          0          CONSTANT   0         
21.1             21               22               638.11     0.017      0          0          0          CONSTANT   0         
22.1             22               23               468.6      0.017      0          0          0          CONSTANT   0         
23.1             23               24               138.78     0.017      0          0          0          CONSTANT   0         
24.1             24               25               692.2      0.017      0          0.3        0          CONSTANT   0         
15.1             15               17               307.13     0.017      0          0.22       0          CONSTANT   0         
14_5.1           14_5             15               252.26     0.017      0          0          0          CONSTANT   0         

[XSECTIONS]
;;Link           Shape        Height   Width    Slope   
;;-------------- ------------ -------- -------- --------
1.1              CIRCULAR     2.44            
2.1              CIRCULAR     2.44            
3.1              CIRCULAR     2.59            
4.1              CIRCULAR     2.59            
Pipe5.1          CIRCULAR     3.51            
6.1              CIRCULAR     3.66            
7.1              CIRCULAR     3.66            
8.1              CIRCULAR     3.66            
9.1              CIRCULAR     3.66            
Pipe10.1         CIRCULAR     3.66            
11.1             CIRCULAR     3.73            
12.1             CIRCULAR     3.73            
13.1             CIRCULAR     3.73            
14.1             CIRCULAR     3.73            
17.1             CIRCULAR     4.11            
18.1             CIRCULAR     4.11            
19.1             CIRCULAR     4.11            
20.1             CIRCULAR     4.11            
21.1             CIRCULAR     4.11            
22.1             CIRCULAR     4.11            
23.1             CIRCULAR     4.11            
24.1             CIRCULAR     4.11            
15.1             CIRCULAR     3.89            
14_5.1           CIRCULAR     3.89            

[LOSSES]
;;Link           Inlet      Outlet    
;;-------------- ---------- ----------
1.1              0.5        0.5       
2.1              0.5        0.5       
3.1              0.5        0.5       
4.1              0.5        0.5       
Pipe5.1          0.5        0.5       
6.1              0.5        0.5       
7.1              0.5        0.5       
8.1              0.055      0.055     
9.1              0.5        0.5       
Pipe10.1         0.5        0.5       
11.1             0.5        0.5       
12.1             0.5        0.5       
13.1             0.5        0.5       
14.1             0.5        0.5       
17.1             0.5        0.5       
18.1             0.5        0.5       
19.1             0.5        0.5       
20.1             0.5        0.5       
21.1             0.5        0.5       
22.1             0.5        0.5       
23.1             0.5        0.5       
24.1             0.5        0.5       
15.1             0.5        0.5       
14_5.1           0.5        0.5       

[INFLOWS]
;;                                           Param    Units    Scale    Baseline
;;Node           Parameter  Time Series      Type     Factor   Factor   Value   
;;--------------  --------- ---------------- -------- -------- -------- --------
1                FLOW       CD_Apr_TYP060_Node1 FLOW     1.0      0.5      0       
2                FLOW       CD_Apr_TYP060_Node2 FLOW     1.0      0.5      0       
3                FLOW       CD_Apr_TYP060_Node3 FLOW     1.0      0.4      0       
5                FLOW       CD_Apr_TYP060_Node5 FLOW     1.0      0.4      0       
7                FLOW       CD_Apr_TYP060_Node7 FLOW     1.0      0.5      0       
8                FLOW       CD_Apr_TYP060_Node8 FLOW     1.0      0.6      0       
11               FLOW       CD_Apr_TYP060_Node11 FLOW     1.0      0.6      0       
12               FLOW       CD_Apr_TYP060_Node12 FLOW     1.0      0.8      0       
13               FLOW       CD_Apr_TYP060_Node13 FLOW     1.0      1.4      0       
14               FLOW       CD_Apr_TYP060_Node14 FLOW     1.0      1.2      0       
17               FLOW       CD_Apr_TYP060_Node17 FLOW     1.0      1.5      0       
18               FLOW       CD_Apr_TYP060_Node18 FLOW     1.0      1.3      0       
19               FLOW       CD_Apr_TYP060_Node19 FLOW     1.0      1.0      0       
20               FLOW       CD_Apr_TYP060_Node20 FLOW     1.0      1.0      0       
21               FLOW       CD_Apr_TYP060_Node21 FLOW     1.0      1.0      0       
22               FLOW       CD_Apr_TYP060_Node22 FLOW     1.0      1.0      0       
24               FLOW       CD_Apr_TYP060_Node24 FLOW     1.0      1.0      0       
14_5             FLOW       CD_Apr_TYP060_Node14_5 FLOW     1.0      1.0      0       

[CURVES]
;;Name           Type       X-Value    Y-Value   
;;-------------- ---------- ---------- ----------
StorageCurve1    Storage    0          0         
StorageCurve1               1          100000    
StorageCurve1               2          200000    
StorageCurve1               10         1000000   

EWWTP_5yr_BL     Rating     0          0         
EWWTP_5yr_BL                0.5        0         
EWWTP_5yr_BL                0.9        2.5       
EWWTP_5yr_BL                1.30       6.79      
EWWTP_5yr_BL                1.46       9.23      
EWWTP_5yr_BL                1.84       13.26     
EWWTP_5yr_BL                2.21       17.20     
EWWTP_5yr_BL                2.49       19.95     
EWWTP_5yr_BL                2.73       23.37     
EWWTP_5yr_BL                5          45        

Node5_BL_5yr     Rating     0          0         
Node5_BL_5yr                3.2        0         
Node5_BL_5yr                3.74416308 0.085360176
Node5_BL_5yr                4.022750271 0.251028931
Node5_BL_5yr                4.350410261 0.494833157
Node5_BL_5yr                4.750917448 0.80372983
Node5_BL_5yr                5.255361432 1.248835635
Node5_BL_5yr                5.393740627 1.441361541
Node5_BL_5yr                5.492800624 1.531567396
Node5_BL_5yr                10         5.3       

Node8_BL_5yr     Rating     0          0         
Node8_BL_5yr                3.6        0         
Node8_BL_5yr                4.3        0.14      
Node8_BL_5yr                4.55       0.36      
Node8_BL_5yr                4.8        0.662156448
Node8_BL_5yr                5.1        1.084989429
Node8_BL_5yr                5.5        1.648766737
Node8_BL_5yr                6          2.353488372
Node8_BL_5yr                12         10.81014799

Node11_BL_5yr    Rating     0          0         
Node11_BL_5yr               3.5        0         
Node11_BL_5yr               3.75       0.346852158
Node11_BL_5yr               4          0.93633577
Node11_BL_5yr               4.5        2.115302995
Node11_BL_5yr               5          3.294270219
Node11_BL_5yr               5.5        4.473237444
Node11_BL_5yr               6          5.652204669
Node11_BL_5yr               12         19.79981137

Node14_BL_5yr    Rating     0          0.000     
Node14_BL_5yr               3.5        0.000     
Node14_BL_5yr               3.75       0.415     
Node14_BL_5yr               3.9        0.646     
Node14_BL_5yr               4          0.800     
Node14_BL_5yr               4.5        1.571     
Node14_BL_5yr               5          2.341     
Node14_BL_5yr               5.5        3.111     
Node14_BL_5yr               12         13.127    

Node20_BL_5yr    Rating     0          0.000     
Node20_BL_5yr               2.5        0.000     
Node20_BL_5yr               2.75       0.872     
Node20_BL_5yr               3          1.852     
Node20_BL_5yr               3.5        3.812     
Node20_BL_5yr               4          5.772     
Node20_BL_5yr               5          9.692     
Node20_BL_5yr               12         37.132    

Node18_BL_5yr    Rating     0          0.000     
Node18_BL_5yr               2.5        0.000     
Node18_BL_5yr               3          0.103     
Node18_BL_5yr               3.5        0.203     
Node18_BL_5yr               4          0.304     
Node18_BL_5yr               4.5        0.404     
Node18_BL_5yr               5          0.505     
Node18_BL_5yr               12         1.912     

Node17_BL_5yr    Rating     0          0.000     
Node17_BL_5yr               4          0.000     
Node17_BL_5yr               4.25       0.230     
Node17_BL_5yr               4.5        0.513     
Node17_BL_5yr               4.75       0.796     
Node17_BL_5yr               5          1.079     
Node17_BL_5yr               7          3.344     
Node17_BL_5yr               12         9.005     

Node13_BL_5yr    Rating     0          0.000     
Node13_BL_5yr               4          0.000     
Node13_BL_5yr               4.25       0.016     
Node13_BL_5yr               4.5        0.063     
Node13_BL_5yr               4.75       0.111     
Node13_BL_5yr               5          0.158     
Node13_BL_5yr               6          0.348     
Node13_BL_5yr               12         1.487     

Node12_BL_5yr    Rating     0          0.000     
Node12_BL_5yr               2.5        0.000     
Node12_BL_5yr               3          0.090     
Node12_BL_5yr               3.5        0.216     
Node12_BL_5yr               4          0.342     
Node12_BL_5yr               4.5        0.469     
Node12_BL_5yr               5          0.595     
Node12_BL_5yr               6          0.847     
Node12_BL_5yr               12         2.360     

Node10_BL_5yr    Rating     0          0.000     
Node10_BL_5yr               3.9        0.000     
Node10_BL_5yr               4          0.031     
Node10_BL_5yr               4.5        0.247     
Node10_BL_5yr               5          0.463     
Node10_BL_5yr               5.5        0.679     
Node10_BL_5yr               6          0.895     
Node10_BL_5yr               12         3.487     

EWWTP_5yr_CD     Rating     0          0         
EWWTP_5yr_CD                0.5        0         
EWWTP_5yr_CD                0.7        0.31382   
EWWTP_5yr_CD                1          3.4634    
EWWTP_5yr_CD                1.5        7.2599    
EWWTP_5yr_CD                2.1        9.41858   
EWWTP_5yr_CD                2.5        17.278    
EWWTP_5yr_CD                3          27.571    
EWWTP_5yr_CD                4          48.157    
EWWTP_5yr_CD                5          68.743    
EWWTP_5yr_CD                8          130.501   

Node3_CD_5yr     Rating     0          0         
Node3_CD_5yr                2.45       0         
Node3_CD_5yr                2.5        0.010430365
Node3_CD_5yr                5.5        0.907023311
Node3_CD_5yr                8.5        1.803616258
Node3_CD_5yr                10.5       2.401344889
Node3_CD_5yr                15.5       3.895666467

Node5_CD_5yr     Rating     0          0         
Node5_CD_5yr                4.25       0         
Node5_CD_5yr                4.3        0.045487365
Node5_CD_5yr                5          1.730204573
Node5_CD_5yr                5.5        2.933574007
Node5_CD_5yr                6.5        5.340312876
Node5_CD_5yr                12.5       19.78074609

Node7_CD_5yr     Rating     0          0         
Node7_CD_5yr                1.8        0         
Node7_CD_5yr                1.9        0.024542918
Node7_CD_5yr                2          0.050624658
Node7_CD_5yr                3          0.311442059
Node7_CD_5yr                4          0.572259461
Node7_CD_5yr                5          0.833076863
Node7_CD_5yr                6          1.093894265
Node7_CD_5yr                12         2.658798675

Node8_CD_5yr     Rating     0          0         
Node8_CD_5yr                4.8        0         
Node8_CD_5yr                4.9        0.102436261
Node8_CD_5yr                5.5        0.782322946
Node8_CD_5yr                5.75       1.065609065
Node8_CD_5yr                6.5        1.915467422
Node8_CD_5yr                12.5       8.714334278

Node13_CD_5yr    Rating     0          0.000     
Node13_CD_5yr               4.8        0.000     
Node13_CD_5yr               5          0.036     
Node13_CD_5yr               5.25       0.085     
Node13_CD_5yr               5.5        0.134     
Node13_CD_5yr               8          0.626     
Node13_CD_5yr               10.5       1.118     
Node13_CD_5yr               12.5       1.511     

Node14_CD_5yr    Rating     0          0.000     
Node14_CD_5yr               4          0.000     
Node14_CD_5yr               4.25       0.023     
Node14_CD_5yr               4.4        0.047     
Node14_CD_5yr               4.5        0.062     
Node14_CD_5yr               5          0.142     
Node14_CD_5yr               5.5        0.221     
Node14_CD_5yr               6          0.301     
Node14_CD_5yr               12.5       1.334     

Node17_CD_5yr    Rating     0          0.000     
Node17_CD_5yr               4.25       0.000     
Node17_CD_5yr               4.4        0.094     
Node17_CD_5yr               4.5        0.207     
Node17_CD_5yr               5.25       1.052     
Node17_CD_5yr               5.5        1.334     
Node17_CD_5yr               8.5        4.714     
Node17_CD_5yr               12.5       9.221     

Node18_CD_5yr    Rating     0          0.000     
Node18_CD_5yr               3          0.000     
Node18_CD_5yr               3.1        0.011     
Node18_CD_5yr               3.5        0.075     
Node18_CD_5yr               4          0.154     
Node18_CD_5yr               4.5        0.234     
Node18_CD_5yr               5          0.314     
Node18_CD_5yr               12.5       1.514     

E-33_CD_5yr      Rating     0          0         
E-33_CD_5yr                 2.80       0         
E-33_CD_5yr                 2.99       0.8289    
E-33_CD_5yr                 3.45       4.080125  
E-33_CD_5yr                 3.90       8.1936    
E-33_CD_5yr                 4.34       13.169325 
E-33_CD_5yr                 4.77       19.0073   
E-33_CD_5yr                 5.33       28.629045 
E-33_CD_5yr                 5.60       33.27     
E-33_CD_5yr                 6.00       41.694725 
E-33_CD_5yr                 6.39       50.9817   

Node12_CD_5yr    Rating     0          0.000     
Node12_CD_5yr               3.7        0.000     
Node12_CD_5yr               3.8        0.002     
Node12_CD_5yr               4          0.132     
Node12_CD_5yr               4.5        0.459     
Node12_CD_5yr               5          0.785     
Node12_CD_5yr               5.5        1.111     
Node12_CD_5yr               6.5        1.764     
Node12_CD_5yr               12.5       5.679     

Node20_CD_5yr    Rating     0          0.000     
Node20_CD_5yr               2.90       0.000     
Node20_CD_5yr               3.10       0.741     
Node20_CD_5yr               3.48       3.783     
Node20_CD_5yr               3.95       7.586     
Node20_CD_5yr               4.43       11.388    
Node20_CD_5yr               4.90       15.190    
Node20_CD_5yr               12.04      72.224    

Node3_CD_Apr_5yr Rating     0          0.00      
Node3_CD_Apr_5yr            4.5        0.00      
Node3_CD_Apr_5yr            4.75       0.19      
Node3_CD_Apr_5yr            5.5        0.82      
Node3_CD_Apr_5yr            8.5        3.31      
Node3_CD_Apr_5yr            10.5       4.97      
Node3_CD_Apr_5yr            15.5       9.13      

Node5_CD_Apr_5yr Rating     0          0.000     
Node5_CD_Apr_5yr            4          0.000     
Node5_CD_Apr_5yr            4.3        0.468     
Node5_CD_Apr_5yr            5          2.034     
Node5_CD_Apr_5yr            5.5        3.152     
Node5_CD_Apr_5yr            6.5        5.389     
Node5_CD_Apr_5yr            12.5       18.809    

Node7_CD_Apr_5yr Rating     0          0         
Node7_CD_Apr_5yr            3.9        0         
Node7_CD_Apr_5yr            4          0.00367444
Node7_CD_Apr_5yr            5.5        0.118740411
Node7_CD_Apr_5yr            6.5        0.195451059
Node7_CD_Apr_5yr            7.5        0.272161706
Node7_CD_Apr_5yr            8.5        0.348872353
Node7_CD_Apr_5yr            10.5       0.502293648
Node7_CD_Apr_5yr            12.5       0.655714943

Node8_CD_Apr_5yr Rating     0          0         
Node8_CD_Apr_5yr            4.5        0         
Node8_CD_Apr_5yr            4.75       0.060019841
Node8_CD_Apr_5yr            5.5        0.80406746
Node8_CD_Apr_5yr            5.75       1.052083333
Node8_CD_Apr_5yr            6.5        1.796130952
Node8_CD_Apr_5yr            12.5       7.748511905

Node12_CD_Apr_5yr Rating     0          0.000     
Node12_CD_Apr_5yr            3.5        0.000     
Node12_CD_Apr_5yr            3.6        0.024     
Node12_CD_Apr_5yr            4.5        0.549     
Node12_CD_Apr_5yr            5.5        1.132     
Node12_CD_Apr_5yr            6.5        1.716     
Node12_CD_Apr_5yr            8.5        2.883     
Node12_CD_Apr_5yr            10.5       4.051     
Node12_CD_Apr_5yr            12.5       5.218     

Node13_CD_Apr_5yr Rating     0          0.000     
Node13_CD_Apr_5yr            4.8        0.000     
Node13_CD_Apr_5yr            5          0.036     
Node13_CD_Apr_5yr            5.25       0.086     
Node13_CD_Apr_5yr            5.5        0.137     
Node13_CD_Apr_5yr            8          0.641     
Node13_CD_Apr_5yr            10.5       1.145     
Node13_CD_Apr_5yr            12.5       1.548     

Node14_5_CD_Apr_5yr Rating     0          0.000     
Node14_5_CD_Apr_5yr            4          0.000     
Node14_5_CD_Apr_5yr            4.5        0.066     
Node14_5_CD_Apr_5yr            5.5        0.217     
Node14_5_CD_Apr_5yr            6.5        0.367     
Node14_5_CD_Apr_5yr            7.5        0.518     
Node14_5_CD_Apr_5yr            8.5        0.669     
Node14_5_CD_Apr_5yr            10.5       0.970     
Node14_5_CD_Apr_5yr            12.5       1.272     

Node17_CD_Apr_5yr Rating     0          0.000     
Node17_CD_Apr_5yr            4.25       0.000     
Node17_CD_Apr_5yr            4.4        0.088     
Node17_CD_Apr_5yr            4.5        0.202     
Node17_CD_Apr_5yr            5.25       1.057     
Node17_CD_Apr_5yr            5.5        1.342     
Node17_CD_Apr_5yr            8.5        4.762     
Node17_CD_Apr_5yr            12.5       9.321     

Node18_CD_Apr_5yr Rating     0          0.000     
Node18_CD_Apr_5yr            3          0.000     
Node18_CD_Apr_5yr            3.1        0.014     
Node18_CD_Apr_5yr            3.5        0.078     
Node18_CD_Apr_5yr            4.5        0.238     
Node18_CD_Apr_5yr            5.5        0.398     
Node18_CD_Apr_5yr            6.5        0.558     
Node18_CD_Apr_5yr            8.5        0.877     
Node18_CD_Apr_5yr            12.5       1.517     

Node20_CD_Apr_5yr Rating     0          0.000     
Node20_CD_Apr_5yr            2.90       0.000     
Node20_CD_Apr_5yr            3.00       0.346     
Node20_CD_Apr_5yr            3.95       7.474     
Node20_CD_Apr_5yr            4.91       14.602    
Node20_CD_Apr_5yr            6.82       28.857    
Node20_CD_Apr_5yr            8.73       43.112    
Node20_CD_Apr_5yr            12.07      68.058    

Node11_CD_Apr_5yr Rating     0          0         
Node11_CD_Apr_5yr            2.80       0         
Node11_CD_Apr_5yr            2.99       0.8405    
Node11_CD_Apr_5yr            3.45       4.058625  
Node11_CD_Apr_5yr            3.90       8.1675    
Node11_CD_Apr_5yr            4.34       13.167125 
Node11_CD_Apr_5yr            4.77       19.0575   
Node11_CD_Apr_5yr            5.33       28.34712035
Node11_CD_Apr_5yr            5.60       33.5105   
Node11_CD_Apr_5yr            5.99       42.073125 
Node11_CD_Apr_5yr            6.38       51.5265   

[TIMESERIES]
;;Name           Date       Time       Value     
;;-------------- ---------- ---------- ----------
;BL_5yr_Node1_Inflows (m3/s)
BL_5yr_Node1     5/10/1999  18:00      0.051847884
BL_5yr_Node1     5/10/1999  18:05      0.00994547
BL_5yr_Node1     5/10/1999  18:10      0.048277154
BL_5yr_Node1     5/10/1999  18:15      0.096374675
BL_5yr_Node1     5/10/1999  18:20      0.009936708
BL_5yr_Node1     5/10/1999  18:25      0.048421735
BL_5yr_Node1     5/10/1999  18:30      0.09635715
BL_5yr_Node1     5/10/1999  18:35      0.008100958
BL_5yr_Node1     5/10/1999  18:40      0.048277154
BL_5yr_Node1     5/10/1999  18:45      0.09635715
BL_5yr_Node1     5/10/1999  18:50      0.009932327
BL_5yr_Node1     5/10/1999  18:55      0.048277154
BL_5yr_Node1     5/10/1999  19:00      0.09635715
BL_5yr_Node1     5/10/1999  19:05      0.009936708
BL_5yr_Node1     5/10/1999  19:10      0.048868624
BL_5yr_Node1     5/10/1999  19:15      0.096344007
BL_5yr_Node1     5/10/1999  19:20      0.009958614
BL_5yr_Node1     5/10/1999  19:25      0.047961703
BL_5yr_Node1     5/10/1999  19:30      0.096348388
BL_5yr_Node1     5/10/1999  19:35      0.00973517
BL_5yr_Node1     5/10/1999  19:40      0.047948559
BL_5yr_Node1     5/10/1999  19:45      0.096501732
BL_5yr_Node1     5/10/1999  19:50      0.009888514
BL_5yr_Node1     5/10/1999  19:55      0.04379512
BL_5yr_Node1     5/10/1999  20:00      0.096304575
BL_5yr_Node1     5/10/1999  20:05      0.009853464
BL_5yr_Node1     5/10/1999  20:10      0.047790833
BL_5yr_Node1     5/10/1999  20:15      0.09649297
BL_5yr_Node1     5/10/1999  20:20      0.009971758
BL_5yr_Node1     5/10/1999  20:25      0.047830265
BL_5yr_Node1     5/10/1999  20:30      0.097728486
BL_5yr_Node1     5/10/1999  20:35      0.009936708
BL_5yr_Node1     5/10/1999  20:40      0.048215816
BL_5yr_Node1     5/10/1999  20:45      0.096383438
BL_5yr_Node1     5/10/1999  20:50      0.008565372
BL_5yr_Node1     5/10/1999  20:55      0.047611201
BL_5yr_Node1     5/10/1999  21:00      0.096436013
BL_5yr_Node1     5/10/1999  21:05      0.009003499
BL_5yr_Node1     5/10/1999  21:10      0.048496217
BL_5yr_Node1     5/10/1999  21:15      0.096339625
BL_5yr_Node1     5/10/1999  21:20      0.009844701
BL_5yr_Node1     5/10/1999  21:25      0.048434879
BL_5yr_Node1     5/10/1999  21:30      0.070862572
BL_5yr_Node1     5/10/1999  21:35      0.043974752
BL_5yr_Node1     5/10/1999  21:40      0.027168221
BL_5yr_Node1     5/10/1999  21:45      0.087226595
BL_5yr_Node1     5/10/1999  21:50      0.007776745
BL_5yr_Node1     5/10/1999  21:55      0.108686029
BL_5yr_Node1     5/10/1999  22:00      0.017529439
BL_5yr_Node1     5/10/1999  22:05      0.0151066 
BL_5yr_Node1     5/10/1999  22:10      0.055466809
BL_5yr_Node1     5/10/1999  22:15      0.064952246
BL_5yr_Node1     5/10/1999  22:20      0.077307412
BL_5yr_Node1     5/10/1999  22:25      0.009275137
BL_5yr_Node1     5/10/1999  22:30      0.02692287
BL_5yr_Node1     5/10/1999  22:35      0.055751591
BL_5yr_Node1     5/10/1999  22:40      0.071506618
BL_5yr_Node1     5/10/1999  22:45      0.07580902
BL_5yr_Node1     5/10/1999  22:50      0.075384037
BL_5yr_Node1     5/10/1999  22:55      0.05297825
BL_5yr_Node1     5/10/1999  23:00      0.032136575
BL_5yr_Node1     5/10/1999  23:05      0.012832724
BL_5yr_Node1     5/10/1999  23:10      0.025306184
BL_5yr_Node1     5/10/1999  23:15      0.05470885
BL_5yr_Node1     5/10/1999  23:20      0.074205477
BL_5yr_Node1     5/10/1999  23:25      0.025805648
BL_5yr_Node1     5/10/1999  23:30      0.006979354
BL_5yr_Node1     5/10/1999  23:35      0.054573031
BL_5yr_Node1     5/10/1999  23:40      0.073390562
BL_5yr_Node1     5/10/1999  23:45      0.060825095
BL_5yr_Node1     5/10/1999  23:50      0.01101888
BL_5yr_Node1     5/10/1999  23:55      0.006773435
BL_5yr_Node1     5/11/1999  0:00       0.005310093
BL_5yr_Node1     5/11/1999  0:05       0.025634779
BL_5yr_Node1     5/11/1999  0:10       0.055690253
BL_5yr_Node1     5/11/1999  0:15       0.073149592